Version 4
SHEET 1 880 680
SYMBOL npn2 -160 80 R0
SYMATTR InstName Q1
SYMATTR Value 2N2222
SYMBOL npn2 160 80 M0
SYMATTR InstName Q2
SYMATTR Value 2N2222
