Version 4
SHEET 1 880 1092
WIRE 192 -208 -64 -208
WIRE 496 -208 192 -208
WIRE 496 -160 496 -208
WIRE -64 -144 -64 -208
WIRE 496 -16 496 -80
WIRE 192 16 192 -208
WIRE -64 64 -64 -64
WIRE -64 64 -160 64
WIRE 32 64 -64 64
WIRE 128 64 32 64
WIRE -160 96 -160 64
WIRE -160 208 -160 176
WIRE 192 208 192 112
WIRE 32 272 32 64
WIRE -160 320 -160 288
WIRE -32 320 -160 320
WIRE -160 352 -160 320
WIRE 192 352 192 288
WIRE -160 464 -160 432
WIRE 192 528 192 432
WIRE -160 576 -160 544
WIRE -64 576 -160 576
WIRE 32 576 32 368
WIRE 32 576 -64 576
WIRE 128 576 32 576
WIRE 192 672 192 624
WIRE -64 784 -64 576
WIRE -128 832 -288 832
WIRE -288 880 -288 832
WIRE -64 912 -64 880
WIRE -288 1024 -288 960
WIRE -64 1024 -64 992
FLAG 192 672 0
FLAG 496 -16 0
FLAG -64 1024 0
FLAG -288 1024 0
SYMBOL npn2 128 16 R0
SYMATTR InstName Q1
SYMATTR Value BC547C
SYMBOL npn2 -32 272 R0
SYMATTR InstName Q2
SYMATTR Value BC547C
SYMBOL res 176 192 R0
SYMATTR InstName R1
SYMATTR Value 4.7
SYMBOL res 176 336 R0
SYMATTR InstName R2
SYMATTR Value 4.7
SYMBOL pnp2 128 624 M180
SYMATTR InstName Q3
SYMATTR Value BC557C
SYMBOL res -176 192 R0
WINDOW 3 -99 53 Left 2
SYMATTR InstName R3
SYMATTR Value {x*1k}
SYMBOL res -176 336 R0
WINDOW 3 -133 49 Left 2
SYMATTR InstName R4
SYMATTR Value {(1-x)*1k}
SYMBOL res -176 80 R0
SYMATTR InstName R5
SYMATTR Value 1.5k
SYMBOL res -176 448 R0
SYMATTR InstName R6
SYMATTR Value 680
SYMBOL res -80 -160 R0
SYMATTR InstName R7
SYMATTR Value 1k
SYMBOL voltage 496 -176 R0
WINDOW 123 0 0 Left 0
WINDOW 39 0 0 Left 0
SYMATTR InstName V1
SYMATTR Value 12V
SYMBOL npn2 -128 784 R0
SYMATTR InstName Q4
SYMATTR Value BC547C
SYMBOL res -80 896 R0
SYMATTR InstName R8
SYMATTR Value 470
SYMBOL voltage -288 864 R0
WINDOW 123 0 0 Left 0
WINDOW 39 0 0 Left 0
SYMATTR InstName V2
SYMATTR Value 3V
TEXT -322 1048 Left 2 !.tran 0 10m 0 1u\n.param x=0.1
