Version 4
SHEET 1 880 868
WIRE 496 -32 272 -32
WIRE 272 96 272 -32
WIRE 496 96 496 -32
WIRE 496 208 496 176
WIRE 272 224 272 192
WIRE 272 336 272 304
WIRE 368 336 272 336
WIRE 496 336 432 336
WIRE 272 368 272 336
WIRE 496 432 496 336
WIRE 272 480 272 448
WIRE 496 576 496 512
WIRE 272 704 272 576
WIRE 688 704 272 704
WIRE 272 736 272 704
WIRE 272 848 272 816
WIRE 752 848 752 752
FLAG 496 208 0
FLAG 496 576 0
FLAG 272 848 0
FLAG 752 848 0
SYMBOL npn2 208 96 R0
SYMATTR InstName Q1
SYMATTR Value 2N3904
SYMBOL npn2 32 656 R0
SYMATTR InstName Q2
SYMATTR Value 2N3904
SYMBOL pnp2 208 576 M180
SYMATTR InstName Q3
SYMATTR Value 2N3906
SYMBOL res 256 208 R0
SYMATTR InstName R1
SYMATTR Value 5.6
SYMBOL res 256 352 R0
SYMATTR InstName R2
SYMATTR Value 5.6
SYMBOL voltage 496 80 R0
WINDOW 123 0 0 Left 0
WINDOW 39 0 0 Left 0
SYMATTR InstName V1
SYMATTR Value 12V
SYMBOL res 80 -16 R0
SYMATTR InstName R3
SYMBOL cap 432 320 R90
WINDOW 0 0 32 VBottom 2
WINDOW 3 32 32 VTop 2
SYMATTR InstName C1
SYMATTR Value 100µF
SYMBOL res 480 416 R0
SYMATTR InstName R4
SYMBOL res 256 720 R0
SYMATTR InstName R5
SYMATTR Value 100
SYMBOL npn2 688 656 R0
SYMATTR InstName Q4
SYMATTR Value 2N3904
