Version 4
SHEET 1 880 680
WIRE 352 -64 176 -64
WIRE 352 -32 352 -64
WIRE 176 0 176 -64
WIRE 176 0 112 0
WIRE 240 0 176 0
WIRE 112 64 112 0
WIRE 352 80 352 48
WIRE 240 160 240 0
WIRE 112 208 112 144
WIRE 176 208 112 208
WIRE 112 272 112 208
WIRE 112 416 112 352
WIRE 176 416 112 416
WIRE 240 416 240 256
WIRE 240 416 176 416
WIRE 176 432 176 416
FLAG 352 80 0
FLAG 176 432 0
SYMBOL npn2 176 160 R0
SYMATTR InstName Q1
SYMATTR Value 2N2222
SYMBOL res 96 256 R0
SYMATTR InstName R1
SYMATTR Value 2.2k
SYMBOL res 96 48 R0
SYMATTR InstName R2
SYMATTR Value 1k
SYMBOL voltage 352 -48 R0
WINDOW 123 0 0 Left 0
WINDOW 39 0 0 Left 0
SYMATTR InstName V1
SYMATTR Value PULSE(0 3 0 8m 1u 0 0 10)
TEXT 94 456 Left 2 !.tran 0 20m 0 1u
